/*--------------------------------*- C++ -*----------------------------------*\
| =========                 |                                                 |
| \\      /  F ield         | OpenFOAM: The Open Source CFD Toolbox           |
|  \\    /   O peration     | Version:  4.x                                   |
|   \\  /    A nd           | Web:      www.OpenFOAM.org                      |
|    \\/     M anipulation  |                                                 |
\*---------------------------------------------------------------------------*/
FoamFile
{
    version     2.0;
    format      ascii;
    class       dictionary;
    object      snappyHexMeshDict;
}
// * * * * * * * * * * * * * * * * * * * * * * * * * * * * * * * * * * * * * //

castellatedMesh true;
snap            true;
addLayers       false;

geometry
{

    mesh.obj
    {
        type triSurfaceMesh;
        name mesh;
    }
}

castellatedMeshControls
{
    maxLocalCells 100000;

    maxGlobalCells 2000000;

    minRefinementCells 0;

    maxLoadUnbalance 0.10;

    nCellsBetweenLevels 1;

    features
    (
        //{
        //    file "someLine.eMesh";
        //    //level 2;
        //    levels ((0.0 2) (1.0 3));
        //}
    );

    refinementSurfaces
    {
        mesh
        {
            level (1 1);
        }
    }

    resolveFeatureAngle 30;
    planarAngle 30;
    refinementRegions
    {
        mesh
        {
            mode distance;
            levels ((0.2 1));
        }
    }

    locationsInMesh (
    ((3.1001 0.0001 0.0001) internalMesh)
    ((0.0001 0.0001 0.0001) mesh)
    );

    allowFreeStandingZoneFaces false;
}

snapControls
{
    nSmoothPatch 3;

    tolerance 2.0;

    nSolveIter 30;

    nRelaxIter 5;

    nFeatureSnapIter 10;

    implicitFeatureSnap false;

    explicitFeatureSnap true;

    multiRegionFeatureSnap false;
}

addLayersControls
{
    relativeSizes true;

    expansionRatio 1.2;

    finalLayerThickness 0.5;

    minThickness 0.1;

    layers
    {
        internalMesh_to_mesh
        {
           nSurfaceLayers 3;
        }
        mesh_to_internalMesh
        {
           nSurfaceLayers 3;
        }
    }

    nGrow 0;

    featureAngle 130;

    maxFaceThicknessRatio 0.5;

    nSmoothSurfaceNormals 1;

    nSmoothThickness 10;

    minMedialAxisAngle 90;

    maxThicknessToMedialRatio 0.3;

    nSmoothNormals 3;

    slipFeatureAngle 30;

    nRelaxIter 5;

    nBufferCellsNoExtrude 0;

    nLayerIter 50;

    nRelaxedIter 20;
}

meshQualityControls
{
    #include "$WM_PROJECT_DIR/etc/caseDicts/meshQualityDict"

    relaxed
    {
        maxNonOrtho 75;
    }

    nSmoothScale 4;

    errorReduction 0.75;
}

mergeTolerance 1e-6;
