
/*--------------------------------*- C++ -*----------------------------------*/

// File was generated by SwiftBlock, a Blender 3D addon.

FoamFile
{
    version     2.0;
    format      ascii;
    class       dictionary;
    object      blockMeshDict;
}
// * * * * * * * * * * * * * * * * * * * * * * * * * * * * * * * * * * * * * //

deltaT          1;

writeInterval   1;



// ************************************************************************* //


geometry
{
}
vertices
(
    (-0.4 -0.3 -0.01)
    (-0.4 -0.3 0.01)
    (-0.4 0.3 -0.01)
    (-0.4 0.3 0.01)
    (0.6 -0.3 -0.01)
    (0.6 -0.3 0.01)
    (0.6 0.3 -0.01)
    (0.6 0.3 0.01)
    (-0.2 0.3 -0.01)
    (-0.2 0.3 0.01)
    (-0.2 -0.3 -0.01)
    (-0.2 -0.3 0.01)
    (0.0 0.3 0.01)
    (0.0 -0.3 -0.01)
    (0.0 0.3 -0.01)
    (0.0 -0.3 0.01)
    (0.0 0.5 -0.01)
    (-0.2 0.5 -0.01)
    (-0.2 0.5 0.01)
    (0.0 0.5 0.01)
);
edges
(
);
faces
(
);
blocks
(
// block id 0
hex (0 2 3 1 10 8 9 11)  (30 1 11) simpleGrading (1 1 1)
// block id 1
hex (13 14 12 15 4 6 7 5)  (30 1 30) simpleGrading (1 1 1)
// block id 2
hex (14 13 15 12 8 10 11 9)  (30 1 11) simpleGrading (1 1 1)
// block id 3
hex (17 16 19 18 8 14 12 9)  (11 1 11) simpleGrading (1 1 1) //x first
);

patches
(
     wall inlet
    (
        (0 1 3 2)
    )
     wall walls
    (
        (14 12 7 6)
        (10 11 1 0)
        (13 15 11 10)
        (2 3 9 8)
        (4 5 15 13)
        (8 9 18 17)
        (12 14 16 19)
    )
     wall outlet
    (
        (6 7 5 4)
    )
     wall front
    (
        (9 3 1 11)
        (12 9 11 15)
        (7 12 15 5)
        (9 12 19 18)
    )
     wall back
    (
        (14 6 4 13)
        (2 8 10 0)
        (8 14 13 10)
        (14 8 17 16)
    )
     wall inlet-top
    (
        (17 18 19 16)
    )
);