/*--------------------------------*- C++ -*----------------------------------*\
| =========                 |                                                 |
| \\      /  F ield         | OpenFOAM: The Open Source CFD Toolbox           |
|  \\    /   O peration     | Version:  v2412                                 |
|   \\  /    A nd           | Website:  www.openfoam.com                      |
|    \\/     M anipulation  |                                                 |
\*---------------------------------------------------------------------------*/
FoamFile
{
    version     2.0;
    format      ascii;
    class       dictionary;
    object      blockMeshDict;
}
// * * * * * * * * * * * * * * * * * * * * * * * * * * * * * * * * * * * * * //

scale   1;

vertices
(
    (-20 -30 0)
    (50 -30 0)
    (50 30 0)
    (-20 30 0)

    (-20 -30 30)
    (50 -30 30)
    (50 30 30)
    (-20 30 30)

);


blocks
(
    hex (0 1 2 3 4 5 6 7)
    (56 48 24)
    simpleGrading (1 1 1)
);

edges
(
);

boundary
(
    inlet
    {
        type patch;
        faces
        (
            (0 4 7 3)
            (2 3 6 7) //Left wall
            (0 1 5 4) //Right wall
            (4 5 6 7) //Upper wall
        );
    }
    outlet
    {
        type patch;
        faces
        (
            (1 2 6 5)
        );
    }
    front
    {
        type wall;
        faces
        (
            (3 2 1 0) //Lower wall
        );
    }
);


// ************************************************************************* //
