/*--------------------------------*- C++ -*----------------------------------*\
| =========                 |                                                 |
| \\      /  F ield         | OpenFOAM: The Open Source CFD Toolbox           |
|  \\    /   O peration     | Version:  v2412                                 |
|   \\  /    A nd           | Website:  www.openfoam.com                      |
|    \\/     M anipulation  |                                                 |
\*---------------------------------------------------------------------------*/
FoamFile
{
    version     2.0;
    format      ascii;
    class       dictionary;
    object      fvOptions;
}
// * * * * * * * * * * * * * * * * * * * * * * * * * * * * * * * * * * * * * //

porousFilter{
    type explicitPorositySource;

    explicitPorositySourceCoeffs{
        selectionMode cellZone;
        cellZone mesh;
        type DarcyForchheimer;

        d   (30000 30000 30000);
        f   (79.731 79.731 79.73);

        coordinateSystem{
            origin (0 0 0);
            rotation none;
        }
    }
}